! generator: yaml2ck
! cantera-version: 3.1.0
! date: Wed, 08 Oct 2025 09:44:27 +0200
! input-files: ['Boivin-UCSD.yaml']
!
! Generated from file h2_12s.scheme by ck2cti on Wed Feb  3 16:34:20 2010  Transport data from file
! sandiego20021001.trans.

ELEM
H O C N
END

SPECIES
H2  H  O2  OH  O  H2O  HO2  H2O2  N2
END

THERMO ALL
300.000   1000.000  5000.000

H2                      H   2               G300.000   5000.000  1000.000      1
 3.33727920E+00-4.94024731E-05 4.99456778E-07-1.79566394E-10 2.00255376E-14    2
-9.50158922E+02-3.20502331E+00 2.34433112E+00 7.98052075E-03-1.94781510E-05    3
 2.01572094E-08-7.37611761E-12-9.17935173E+02 6.83010238E-01                   4
H                       H   1               G300.000   5000.000  1000.000      1
 2.50000001E+00-2.30842973E-11 1.61561948E-14-4.73515235E-18 4.98197357E-22    2
 2.54736599E+04-4.46682914E-01 2.50000000E+00 7.05332819E-13-1.99591964E-15    3
 2.30081632E-18-9.27732332E-22 2.54736599E+04-4.46682853E-01                   4
O2                      O   2               G300.000   5000.000  1000.000      1
 3.28253784E+00 1.48308754E-03-7.57966669E-07 2.09470555E-10-2.16717794E-14    2
-1.08845772E+03 5.45323129E+00 3.78245636E+00-2.99673416E-03 9.84730201E-06    3
-9.68129509E-09 3.24372837E-12-1.06394356E+03 3.65767573E+00                   4
OH                      H   1O   1          G300.000   5000.000  1000.000      1
 2.86472886E+00 1.05650448E-03-2.59082758E-07 3.05218674E-11-1.33195876E-15    2
 3.71885774E+03 5.70164073E+00 4.12530561E+00-3.22544939E-03 6.52764691E-06    3
-5.79853643E-09 2.06237379E-12 3.38153812E+03-6.90432960E-01                   4
O                       O   1               G300.000   5000.000  1000.000      1
 2.56942078E+00-8.59741137E-05 4.19484589E-08-1.00177799E-11 1.22833691E-15    2
 2.92175791E+04 4.78433864E+00 3.16826710E+00-3.27931884E-03 6.64306396E-06    3
-6.12806624E-09 2.11265971E-12 2.91222592E+04 2.05193346E+00                   4
H2O                     H   2O   1          G300.000   5000.000  1000.000      1
 3.03399249E+00 2.17691804E-03-1.64072518E-07-9.70419870E-11 1.68200992E-14    2
-3.00042971E+04 4.96677010E+00 4.19864056E+00-2.03643410E-03 6.52040211E-06    3
-5.48797062E-09 1.77197817E-12-3.02937267E+04-8.49032208E-01                   4
HO2                     H   1O   2          G300.000   5000.000  1000.000      1
 4.01721090E+00 2.23982013E-03-6.33658150E-07 1.14246370E-10-1.07908535E-14    2
 1.11856713E+02 3.78510215E+00 4.30179801E+00-4.74912051E-03 2.11582891E-05    3
-2.42763894E-08 9.29225124E-12 2.94808040E+02 3.71666245E+00                   4
H2O2                    H   2O   2          G300.000   5000.000  1000.000      1
 4.16500285E+00 4.90831694E-03-1.90139225E-06 3.71185986E-10-2.87908305E-14    2
-1.78617877E+04 2.91615662E+00 4.27611269E+00-5.42822417E-04 1.67335701E-05    3
-2.15770813E-08 8.62454363E-12-1.77025821E+04 3.43505074E+00                   4
N2                      N   2               G300.000   5000.000  1000.000      1
 2.92664000E+00 1.48797680E-03-5.68476000E-07 1.00970380E-10-6.75335100E-15    2
-9.22797700E+02 5.98052800E+00 3.29867700E+00 1.40824040E-03-3.96322200E-06    3
 5.64151500E-09-2.44485400E-12-1.02089990E+03 3.95037200E+00                   4
END

REACTIONS CAL/MOLE MOLE
H + O2 <=> O + OH       3.520000000000001e+16 -0.7 17069.8
H2 + O <=> H + OH       50600.00000000001 2.67 6290.63
H2 + OH <=> H + H2O     1170000000.0000002 1.3 3635.28
H + O2 (+M) => HO2 (+M) 4650000000000.001 0.44 0.0
LOW /5.750000000000001e+19 -1.4 0.0/
TROE /0.5 1E-30 1E+30/
H2/2.500E+00/ H2O/1.600E+01/ O2/1.000E+00/
H + HO2 => 2 OH         70800000000000.02 0.0 295.0
H + HO2 <=> H2 + O2     16600000000000.002 0.0 823.0
HO2 + OH => H2O + O2    28900000000000.004 0.0 -497.13
H + OH + M <=> H2O + M  4.000000000000001e+22 -2.0 0.0
H2/2.500E+00/ H2O/1.200E+01/
2 H + M <=> H2 + M      1.3000000000000003e+18 -1.0 0.0
H2/2.500E+00/ H2O/1.200E+01/
2 HO2 => H2O2 + O2      3020000000000.0005 0.0 1386.23
H2 + HO2 => H + H2O2    162439000000.00003 0.606961 23933.0
H2O2 (+M) => 2 OH (+M)  2.62328e+19 -1.38836 51323.0
LOW /8.15342e+23 -1.91836 49621.0/
TROE /0.735 94 1756 5182/
H2/2.000E+00/ H2O/6.000E+00/
END



TRANSPORT
H2                 1    38.000     2.920     0.000     0.790   280.000
H                  0   145.000     2.050     0.000     0.000     0.000
O2                 1   107.400     3.458     0.000     1.600     3.800
OH                 1    80.000     2.750     0.000     0.000     0.000
O                  0    80.000     2.750     0.000     0.000     0.000
H2O                2   572.400     2.605     1.844     0.000     4.000
HO2                2   107.400     3.458     0.000     0.000     1.000
H2O2               2   107.400     3.458     0.000     0.000     3.800
N2                 1    97.530     3.621     0.000     1.760     4.000
END