! generator: yaml2ck
! cantera-version: 3.1.0
! date: Mon, 22 Sep 2025 14:59:06 +0200
! input-files: ['Laera-light.yaml']
!

ELEM
H O C N Ar
END

SPECIES
H2  H  O  O2  OH  H2O  HO2  H2O2  CH3  CH4  CO  CO2  CH2O  CH3O  CH3OH  C2H2
C2H4  C2H6  CH2CO  N2  CH  CH2  CH2(S)  HCO  CH2OH  C2H3  C2H5  HCCO  CH2CHO
END

THERMO ALL
200.000   1000.000  5000.000

H2                TPIS78H   2               G200.000   3500.000  1000.000      1
 3.33727920E+00-4.94024731E-05 4.99456778E-07-1.79566394E-10 2.00255376E-14    2
-9.50158922E+02-3.20502331E+00 2.34433112E+00 7.98052075E-03-1.94781510E-05    3
 2.01572094E-08-7.37611761E-12-9.17935173E+02 6.83010238E-01                   4
H                 L7/88 H   1               G200.000   3500.000  1000.000      1
 2.50000000E+00-2.30842973E-11 1.61561948E-14-4.73515235E-18 4.98197357E-22    2
 2.54736599E+04-4.46682914E-01 2.50000000E+00 7.05332819E-13-1.99591964E-15    3
 2.30081632E-18-9.27732332E-22 2.54736599E+04-4.46682853E-01                   4
!L1/90
! GRI-Mech Version 3.0 Thermodynamics released 7/30/99
! NASA Polynomial format for CHEMKIN-II
! see README file for disclaimer
!
O                       O   1               G200.000   3500.000  1000.000      1
 2.56942078E+00-8.59741137E-05 4.19484589E-08-1.00177799E-11 1.22833691E-15    2
 2.92175791E+04 4.78433864E+00 3.16826710E+00-3.27931884E-03 6.64306396E-06    3
-6.12806624E-09 2.11265971E-12 2.91222592E+04 2.05193346E+00                   4
O2                TPIS89O   2               G200.000   3500.000  1000.000      1
 3.28253784E+00 1.48308754E-03-7.57966669E-07 2.09470555E-10-2.16717794E-14    2
-1.08845772E+03 5.45323129E+00 3.78245636E+00-2.99673416E-03 9.84730201E-06    3
-9.68129509E-09 3.24372837E-12-1.06394356E+03 3.65767573E+00                   4
OH                RUS78 H   1O   1          G200.000   3500.000  1000.000      1
 3.09288767E+00 5.48429716E-04 1.26505228E-07-8.79461556E-11 1.17412376E-14    2
 3.85865700E+03 4.47669610E+00 3.99201543E+00-2.40131752E-03 4.61793841E-06    3
-3.88113333E-09 1.36411470E-12 3.61508056E+03-1.03925458E-01                   4
H2O               L8/89 H   2O   1          G200.000   3500.000  1000.000      1
 3.03399249E+00 2.17691804E-03-1.64072518E-07-9.70419870E-11 1.68200992E-14    2
-3.00042971E+04 4.96677010E+00 4.19864056E+00-2.03643410E-03 6.52040211E-06    3
-5.48797062E-09 1.77197817E-12-3.02937267E+04-8.49032208E-01                   4
HO2               L5/89 H   1O   2          G200.000   3500.000  1000.000      1
 4.01721090E+00 2.23982013E-03-6.33658150E-07 1.14246370E-10-1.07908535E-14    2
 1.11856713E+02 3.78510215E+00 4.30179801E+00-4.74912051E-03 2.11582891E-05    3
-2.42763894E-08 9.29225124E-12 2.94808040E+02 3.71666245E+00                   4
H2O2              L7/88 H   2O   2          G200.000   3500.000  1000.000      1
 4.16500285E+00 4.90831694E-03-1.90139225E-06 3.71185986E-10-2.87908305E-14    2
-1.78617877E+04 2.91615662E+00 4.27611269E+00-5.42822417E-04 1.67335701E-05    3
-2.15770813E-08 8.62454363E-12-1.77025821E+04 3.43505074E+00                   4
CH3               L11/89C   1H   3          G200.000   3500.000  1000.000      1
 2.28571772E+00 7.23990037E-03-2.98714348E-06 5.95684644E-10-4.67154394E-14    2
 1.67755843E+04 8.48007179E+00 3.67359040E+00 2.01095175E-03 5.73021856E-06    3
-6.87117425E-09 2.54385734E-12 1.64449988E+04 1.60456433E+00                   4
CH4               L8/88 C   1H   4          G200.000   3500.000  1000.000      1
 7.48514950E-02 1.33909467E-02-5.73285809E-06 1.22292535E-09-1.01815230E-13    2
-9.46834459E+03 1.84373180E+01 5.14987613E+00-1.36709788E-02 4.91800599E-05    3
-4.84743026E-08 1.66693956E-11-1.02466476E+04-4.64130376E+00                   4
CO                TPIS79C   1O   1          G200.000   3500.000  1000.000      1
 2.71518561E+00 2.06252743E-03-9.98825771E-07 2.30053008E-10-2.03647716E-14    2
-1.41518724E+04 7.81868772E+00 3.57953347E+00-6.10353680E-04 1.01681433E-06    3
 9.07005884E-10-9.04424499E-13-1.43440860E+04 3.50840928E+00                   4
CO2               L7/88 C   1O   2          G200.000   3500.000  1000.000      1
 3.85746029E+00 4.41437026E-03-2.21481404E-06 5.23490188E-10-4.72084164E-14    2
-4.87591660E+04 2.27163806E+00 2.35677352E+00 8.98459677E-03-7.12356269E-06    3
 2.45919022E-09-1.43699548E-13-4.83719697E+04 9.90105222E+00                   4
CH2O              L8/88 C   1H   2O   1     G200.000   3500.000  1000.000      1
 1.76069008E+00 9.20000082E-03-4.42258813E-06 1.00641212E-09-8.83855640E-14    2
-1.39958323E+04 1.36563230E+01 4.79372315E+00-9.90833369E-03 3.73220008E-05    3
-3.79285261E-08 1.31772652E-11-1.43089567E+04 6.02812900E-01                   4
CH3O              121686C   1H   3O   1     G300.000   3000.000  1000.000      1
 3.77079900E+00 7.87149700E-03-2.65638400E-06 3.94443100E-10-2.11261600E-14    2
 1.27832520E+02 2.92957500E+00 2.10620400E+00 7.21659500E-03 5.33847200E-06    3
-7.37763600E-09 2.07561000E-12 9.78601100E+02 1.31521770E+01                   4
CH3OH             L8/88 C   1H   4O   1     G200.000   3500.000  1000.000      1
 1.78970791E+00 1.40938292E-02-6.36500835E-06 1.38171085E-09-1.17060220E-13    2
-2.53748747E+04 1.45023623E+01 5.71539582E+00-1.52309129E-02 6.52441155E-05    3
-7.10806889E-08 2.61352698E-11-2.56427656E+04-1.50409823E+00                   4
C2H2              L1/91 C   2H   2          G200.000   3500.000  1000.000      1
 4.14756964E+00 5.96166664E-03-2.37294852E-06 4.67412171E-10-3.61235213E-14    2
 2.59359992E+04-1.23028121E+00 8.08681094E-01 2.33615629E-02-3.55171815E-05    3
 2.80152437E-08-8.50072974E-12 2.64289807E+04 1.39397051E+01                   4
C2H4              L1/91 C   2H   4          G200.000   3500.000  1000.000      1
 2.03611116E+00 1.46454151E-02-6.71077915E-06 1.47222923E-09-1.25706061E-13    2
 4.93988614E+03 1.03053693E+01 3.95920148E+00-7.57052247E-03 5.70990292E-05    3
-6.91588753E-08 2.69884373E-11 5.08977593E+03 4.09733096E+00                   4
C2H6              L8/88 C   2H   6          G200.000   3500.000  1000.000      1
 1.07188150E+00 2.16852677E-02-1.00256067E-05 2.21412000E-09-1.90002890E-13    2
-1.14263932E+04 1.51156107E+01 4.29142492E+00-5.50154270E-03 5.99438288E-05    3
-7.08466285E-08 2.68685771E-11-1.15222055E+04 2.66682316E+00                   4
CH2CO             L5/90 C   2H   2O   1     G200.000   3500.000  1000.000      1
 4.51129732E+00 9.00359745E-03-4.16939635E-06 9.23345882E-10-7.94838201E-14    2
-7.55105311E+03 6.32247205E-01 2.13583630E+00 1.81188721E-02-1.73947474E-05    3
 9.34397568E-09-2.01457615E-12-7.04291804E+03 1.22156480E+01                   4
N2                121286N   2               G300.000   5000.000  1000.000      1
 2.92664000E+00 1.48797680E-03-5.68476000E-07 1.00970380E-10-6.75335100E-15    2
-9.22797700E+02 5.98052800E+00 3.29867700E+00 1.40824040E-03-3.96322200E-06    3
 5.64151500E-09-2.44485400E-12-1.02089990E+03 3.95037200E+00                   4
CH                TPIS79C   1H   1          G200.000   3500.000  1000.000      1
 2.87846473E+00 9.70913681E-04 1.44445655E-07-1.30687849E-10 1.76079383E-14    2
 7.10124364E+04 5.48498000E+00 3.48981665E+00 3.23835541E-04-1.68899065E-06    3
 3.16217327E-09-1.40609067E-12 7.07972934E+04 2.08401108E+00                   4
CH2               LS/93 C   1H   2          G200.000   3500.000  1000.000      1
 2.87410113E+00 3.65639292E-03-1.40894597E-06 2.60179549E-10-1.87727567E-14    2
 4.62636040E+04 6.17119324E+00 3.76267867E+00 9.68872143E-04 2.79489841E-06    3
-3.85091153E-09 1.68741719E-12 4.60040401E+04 1.56253185E+00                   4
CH2(S)            LS/93 C   1H   2          G200.000   3500.000  1000.000      1
 2.29203842E+00 4.65588637E-03-2.01191947E-06 4.17906000E-10-3.39716365E-14    2
 5.09260000E+04 8.62650169E+00 4.19860411E+00-2.36661419E-03 8.23296220E-06    3
-6.68815981E-09 1.94314737E-12 5.04968163E+04-7.69118967E-01                   4
HCO               L12/89C   1H   1O   1     G200.000   3500.000  1000.000      1
 2.77217438E+00 4.95695526E-03-2.48445613E-06 5.89161778E-10-5.33508711E-14    2
 4.01191815E+03 9.79834492E+00 4.22118584E+00-3.24392532E-03 1.37799446E-05    3
-1.33144093E-08 4.33768865E-12 3.83956496E+03 3.39437243E+00                   4
CH2OH             GUNL93C   1H   3O   1     G200.000   3500.000  1000.000      1
 3.69266569E+00 8.64576797E-03-3.75101120E-06 7.87234636E-10-6.48554201E-14    2
-3.24250627E+03 5.81043215E+00 3.86388918E+00 5.59672304E-03 5.93271791E-06    3
-1.04532012E-08 4.36967278E-12-3.19391367E+03 5.47302243E+00                   4
C2H3              L2/92 C   2H   3          G200.000   3500.000  1000.000      1
 3.01672400E+00 1.03302292E-02-4.68082349E-06 1.01763288E-09-8.62607041E-14    2
 3.46128739E+04 7.78732378E+00 3.21246645E+00 1.51479162E-03 2.59209412E-05    3
-3.57657847E-08 1.47150873E-11 3.48598468E+04 8.51054025E+00                   4
C2H5              L12/92C   2H   5          G200.000   3500.000  1000.000      1
 1.95465642E+00 1.73972722E-02-7.98206668E-06 1.75217689E-09-1.49641576E-13    2
 1.28575200E+04 1.34624343E+01 4.30646568E+00-4.18658892E-03 4.97142807E-05    3
-5.99126606E-08 2.30509000E-11 1.28416265E+04 4.70720924E+00                   4
HCCO              SRIC91C   2H   1O   1     G300.000   4000.000  1000.000      1
 5.62820580E+00 4.08534010E-03-1.59345470E-06 2.86260520E-10-1.94078320E-14    2
 1.93272150E+04-3.93025950E+00 2.25172140E+00 1.76550210E-02-2.37291010E-05    3
 1.72757590E-08-5.06648110E-12 2.00594490E+04 1.24904170E+01                   4
CH2CHO            SAND86C   2H   3O   1     G300.000   5000.000  1000.000      1
 5.97567000E+00 8.13059100E-03-2.74362400E-06 4.07030400E-10-2.17601700E-14    2
 4.90321800E+02-5.04525100E+00 3.40906200E+00 1.07385740E-02 1.89149200E-06    3
-7.15858300E-09 2.86738500E-12 1.52147660E+03 9.55829000E+00                   4
END

REACTIONS CAL/MOLE MOLE
H + O + M <=> OH + M             5e+17 -1.0 0.0
CH4/2.000E+00/ CO/1.500E+00/ CO2/2.000E+00/ H2/2.000E+00/ H2O/6.000E+00/
H2 + O <=> H + OH                38700.0 2.7 6260.0
HO2 + O <=> O2 + OH              20000000000000.0 0.0 0.0
H2O2 + O <=> HO2 + OH            9630000.0 2.0 4000.0
CH + O <=> CO + H                57000000000000.0 0.0 0.0
CH2 + O <=> H + HCO              80000000000000.0 0.0 0.0
CH2(S) + O <=> CO + H2           15000000000000.0 0.0 0.0
CH2(S) + O <=> H + HCO           15000000000000.0 0.0 0.0
CH3 + O <=> CH2O + H             50600000000000.0 0.0 0.0
CH4 + O <=> CH3 + OH             1020000000.0 1.5 8600.0
CO + O (+M) <=> CO2 (+M)         18000000000.0 0.0 2385.0
LOW /602000000000000.0 0.0 3000.0/
TROE /1 1 1E+07 1E+07/
CH4/2.000E+00/ CO/1.500E+00/ CO2/3.500E+00/ H2/2.000E+00/ H2O/6.000E+00/ O2/6.000E+00/
HCO + O <=> CO + OH              30000000000000.0 0.0 0.0
HCO + O <=> CO2 + H              30000000000000.0 0.0 0.0
CH2O + O <=> HCO + OH            39000000000000.0 0.0 3540.0
CH2OH + O <=> CH2O + OH          10000000000000.0 0.0 0.0
CH3O + O <=> CH2O + OH           10000000000000.0 0.0 0.0
CH3OH + O <=> CH2OH + OH         388000.0 2.5 3100.0
CH3OH + O <=> CH3O + OH          130000.0 2.5 5000.0
C2H2 + O <=> H + HCCO            13500000.0 2.0 1900.0
C2H2 + O <=> CH2 + CO            6940000.0 2.0 1900.0
C2H3 + O <=> CH2CO + H           30000000000000.0 0.0 0.0
C2H4 + O <=> CH3 + HCO           12500000.0 1.83 220.0
C2H5 + O <=> CH2O + CH3          22400000000000.0 0.0 0.0
C2H6 + O <=> C2H5 + OH           89800000.0 1.92 5690.0
HCCO + O <=> 2 CO + H            100000000000000.0 0.0 0.0
CH2CO + O <=> HCCO + OH          10000000000000.0 0.0 8000.0
CH2CO + O <=> CH2 + CO2          1750000000000.0 0.0 1350.0
CO + O2 <=> CO2 + O              2500000000000.0 0.0 47800.0
CH2O + O2 <=> HCO + HO2          100000000000000.0 0.0 40000.0
H + O2 + M <=> HO2 + M           2.8e+18 -0.86 0.0
CO/7.500E-01/ CO2/1.500E+00/ H2O/0.000E+00/ N2/0.000E+00/ O2/0.000E+00/
H + O2 + O2 <=> HO2 + O2         2.08e+19 -1.24 0.0
H + O2 + H2O <=> HO2 + H2O       1.126e+19 -0.76 0.0
H + O2 + N2 <=> HO2 + N2         2.6e+19 -1.24 0.0
H + O2 <=> O + OH                2.65e+16 -0.6707 17040.999043977055
2 H + M <=> H2 + M               1e+18 -1.0 0.0
CH4/2.000E+00/ CO2/0.000E+00/ H2/0.000E+00/ H2O/0.000E+00/
2 H + H2 <=> H2 + H2             9e+16 -0.6 0.0
2 H + H2O <=> H2 + H2O           6e+19 -1.25 0.0
H + OH + M <=> H2O + M           2.2e+22 -2.0 0.0
CH4/2.000E+00/ H2/7.300E-01/ H2O/3.650E+00/
H + HO2 <=> H2O + O              3970000000000.0 0.0 671.0
H + HO2 <=> H2 + O2              44800000000000.0 0.0 1068.0
H + HO2 <=> 2 OH                 84000000000000.0 0.0 635.0
H + H2O2 <=> H2 + HO2            12100000.0 2.0 5200.0
H + H2O2 <=> H2O + OH            10000000000000.0 0.0 3600.0
CH2 + H (+M) <=> CH3 (+M)        600000000000000.0 0.0 0.0
LOW /1.04e+26 -2.76 1600.0/
TROE /0.562 91 5840 8550/
CH4/2.000E+00/ CO/1.500E+00/ CO2/2.000E+00/ H2/2.000E+00/ H2O/6.000E+00/
CH2(S) + H <=> CH + H2           30000000000000.0 0.0 0.0
CH3 + H (+M) <=> CH4 (+M)        1.39e+16 -0.534 536.0
LOW /2.62e+33 -4.76 2440.0/
TROE /0.783 74 2940 6960/
CH4/3.000E+00/ CO/1.500E+00/ CO2/2.000E+00/ H2/2.000E+00/ H2O/6.000E+00/
CH4 + H <=> CH3 + H2             660000000.0 1.62 10840.0
H + HCO <=> CO + H2              73400000000000.0 0.0 0.0
CH2O + H (+M) <=> CH2OH (+M)     540000000000.0 0.454 3600.0
LOW /1.27e+32 -4.82 6530.0/
TROE /0.719 103 1290 4160/
CH4/2.000E+00/ CO/1.500E+00/ CO2/2.000E+00/ H2/2.000E+00/ H2O/6.000E+00/
CH2O + H (+M) <=> CH3O (+M)      540000000000.0 0.454 2600.0
LOW /2.2e+30 -4.8 5560.0/
TROE /0.758 94 1560 4200/
CH4/2.000E+00/ CO/1.500E+00/ CO2/2.000E+00/ H2/2.000E+00/ H2O/6.000E+00/
CH2O + H <=> H2 + HCO            57400000.0 1.9 2742.0004780114723
CH2OH + H <=> CH2O + H2          20000000000000.0 0.0 0.0
CH2OH + H <=> CH3 + OH           165000000000.0 0.65 -284.0
CH2OH + H <=> CH2(S) + H2O       32800000000000.0 -0.09 610.0
CH3O + H (+M) <=> CH3OH (+M)     2430000000000.0 0.515 50.0
LOW /4.6599999999999994e+41 -7.44 14080.0/
TROE /0.7 100 90000 10000/
CH4/2.000E+00/ CO/1.500E+00/ CO2/2.000E+00/ H2/2.000E+00/ H2O/6.000E+00/
CH3O + H <=> CH2OH + H           41500000.0 1.63 1924.0
CH3O + H <=> CH2O + H2           20000000000000.0 0.0 0.0
CH3O + H <=> CH3 + OH            1500000000000.0 0.5 -110.0
CH3O + H <=> CH2(S) + H2O        262000000000000.0 -0.23 1070.0
CH3OH + H <=> CH2OH + H2         17000000.0 2.1 4870.0
CH3OH + H <=> CH3O + H2          4200000.0 2.1 4870.0
C2H2 + H (+M) <=> C2H3 (+M)      5600000000000.0 0.0 2400.0
LOW /3.8e+40 -7.27 7220.0/
TROE /0.751 98.5 1300 4170/
CH4/2.000E+00/ CO/1.500E+00/ CO2/2.000E+00/ H2/2.000E+00/ H2O/6.000E+00/
C2H3 + H <=> C2H2 + H2           30000000000000.0 0.0 0.0
C2H4 + H (+M) <=> C2H5 (+M)      540000000000.0 0.454 1820.0
LOW /6e+41 -7.62 6970.0/
TROE /0.975 210 984 4370/
CH4/2.000E+00/ CO/1.500E+00/ CO2/2.000E+00/ H2/2.000E+00/ H2O/6.000E+00/
C2H4 + H <=> C2H3 + H2           1325000.0 2.53 12240.0
C2H5 + H (+M) <=> C2H6 (+M)      5.21e+17 -0.99 1580.0
LOW /1.99e+41 -7.08 6685.0/
TROE /0.842 125 2220 6880/
CH4/2.000E+00/ CO/1.500E+00/ CO2/2.000E+00/ H2/2.000E+00/ H2O/6.000E+00/
C2H5 + H <=> C2H4 + H2           2000000000000.0 0.0 0.0
C2H6 + H <=> C2H5 + H2           115000000.0 1.9 7530.0
H + HCCO <=> CH2(S) + CO         100000000000000.0 0.0 0.0
CH2CO + H <=> H2 + HCCO          50000000000000.0 0.0 8000.0
CH2CO + H <=> CH3 + CO           11300000000000.0 0.0 3427.9995219885277
CO + H2 (+M) <=> CH2O (+M)       43000000.0 1.5 79600.0
LOW /5.070000000000001e+27 -3.42 84350.0/
TROE /0.932 197 1540 10300/
CH4/2.000E+00/ CO/1.500E+00/ CO2/2.000E+00/ H2/2.000E+00/ H2O/6.000E+00/
H2 + OH <=> H + H2O              216000000.0 1.51 3430.0
2 OH (+M) <=> H2O2 (+M)          74000000000000.0 -0.37 0.0
LOW /2.3e+18 -0.9 -1700.0/
TROE /0.735 94 1760 5180/
CH4/2.000E+00/ CO/1.500E+00/ CO2/2.000E+00/ H2/2.000E+00/ H2O/6.000E+00/
2 OH <=> H2O + O                 35700.0 2.4 -2110.0
HO2 + OH <=> H2O + O2            14500000000000.0 0.0 -500.0
DUPLICATE
H2O2 + OH <=> H2O + HO2          2000000000000.0 0.0 427.0
DUPLICATE
H2O2 + OH <=> H2O + HO2          1.7e+18 0.0 29409.990439770554
DUPLICATE
CH + OH <=> H + HCO              30000000000000.0 0.0 0.0
CH2 + OH <=> CH2O + H            20000000000000.0 0.0 0.0
CH2 + OH <=> CH + H2O            11300000.0 2.0 3000.0
CH2(S) + OH <=> CH2O + H         30000000000000.0 0.0 0.0
CH3 + OH (+M) <=> CH3OH (+M)     2.79e+18 -1.43 1330.0
LOW /4e+36 -5.92 3140.0/
TROE /0.412 195 5900 6390/
CH4/2.000E+00/ CO/1.500E+00/ CO2/2.000E+00/ H2/2.000E+00/ H2O/6.000E+00/
CH3 + OH <=> CH2 + H2O           56000000.0 1.6 5420.0
CH3 + OH <=> CH2(S) + H2O        6.44e+17 -1.34 1417.0
CH4 + OH <=> CH3 + H2O           100000000.0 1.6 3120.0
CO + OH <=> CO2 + H              47600000.0 1.228 70.0
HCO + OH <=> CO + H2O            50000000000000.0 0.0 0.0
CH2O + OH <=> H2O + HCO          3430000000.0 1.18 -447.0
CH2OH + OH <=> CH2O + H2O        5000000000000.0 0.0 0.0
CH3O + OH <=> CH2O + H2O         5000000000000.0 0.0 0.0
CH3OH + OH <=> CH2OH + H2O       1440000.0 2.0 -840.0
CH3OH + OH <=> CH3O + H2O        6300000.0 2.0 1500.0
C2H2 + OH <=> CH2CO + H          0.00021799999999999999 4.5 -1000.0
C2H2 + OH <=> CH3 + CO           0.000483 4.0 -2000.0
C2H3 + OH <=> C2H2 + H2O         5000000000000.0 0.0 0.0
C2H4 + OH <=> C2H3 + H2O         3600000.0 2.0 2500.0
C2H6 + OH <=> C2H5 + H2O         3540000.0 2.12 870.0
CH2CO + OH <=> H2O + HCCO        7500000000000.0 0.0 2000.0
2 HO2 <=> H2O2 + O2              130000000000.0 0.0 -1630.0
DUPLICATE
2 HO2 <=> H2O2 + O2              420000000000000.0 0.0 12000.0
DUPLICATE
CH2 + HO2 <=> CH2O + OH          20000000000000.0 0.0 0.0
CH3 + HO2 <=> CH4 + O2           1000000000000.0 0.0 0.0
CH3 + HO2 <=> CH3O + OH          37800000000000.0 0.0 0.0
CO + HO2 <=> CO2 + OH            150000000000000.0 0.0 23600.0
CH2O + HO2 <=> H2O2 + HCO        5600000.0 2.0 12000.0
CH + O2 <=> HCO + O              67100000000000.0 0.0 0.0
CH + H2 <=> CH2 + H              108000000000000.0 0.0 3110.0
CH + H2O <=> CH2O + H            5710000000000.0 0.0 -755.0
CH + CH3 <=> C2H3 + H            30000000000000.0 0.0 0.0
CH + CH4 <=> C2H4 + H            60000000000000.0 0.0 0.0
CH + CO (+M) <=> HCCO (+M)       50000000000000.0 0.0 0.0
LOW /2.69e+28 -3.74 1936.0/
TROE /0.576 237 1650 5070/
CH4/2.000E+00/ CO/1.500E+00/ CO2/2.000E+00/ H2/2.000E+00/ H2O/6.000E+00/
CH + CO2 <=> CO + HCO            190000000000000.0 0.0 15792.000478011472
CH + CH2O <=> CH2CO + H          94600000000000.0 0.0 -515.0
CH2 + O2 => CO + H + OH          5000000000000.0 0.0 1500.0
CH2 + H2 <=> CH3 + H             500000.0 2.0 7230.0
CH2 + CH3 <=> C2H4 + H           40000000000000.0 0.0 0.0
CH2 + CH4 <=> 2 CH3              2460000.0 2.0 8270.0
CH2 + CO (+M) <=> CH2CO (+M)     810000000000.0 0.5 4510.0
LOW /2.69e+33 -5.11 7095.0/
TROE /0.591 275 1230 5180/
CH4/2.000E+00/ CO/1.500E+00/ CO2/2.000E+00/ H2/2.000E+00/ H2O/6.000E+00/
CH2(S) + N2 <=> CH2 + N2         15000000000000.0 0.0 600.0
CH2(S) + O2 <=> CO + H + OH      28000000000000.0 0.0 0.0
CH2(S) + O2 <=> CO + H2O         12000000000000.0 0.0 0.0
CH2(S) + H2 <=> CH3 + H          70000000000000.0 0.0 0.0
CH2(S) + H2O (+M) <=> CH3OH (+M) 4.82e+17 -1.16 1145.0
LOW /1.8800000000000002e+38 -6.36 5040.0/
TROE /0.603 208 3920 10200/
CH4/2.000E+00/ CO/1.500E+00/ CO2/2.000E+00/ H2/2.000E+00/ H2O/6.000E+00/
CH2(S) + H2O <=> CH2 + H2O       30000000000000.0 0.0 0.0
CH2(S) + CH3 <=> C2H4 + H        12000000000000.0 0.0 -570.0
CH2(S) + CH4 <=> 2 CH3           16000000000000.0 0.0 -570.0
CH2(S) + CO <=> CH2 + CO         9000000000000.0 0.0 0.0
CH2(S) + CO2 <=> CH2 + CO2       7000000000000.0 0.0 0.0
CH2(S) + CO2 <=> CH2O + CO       14000000000000.0 0.0 0.0
C2H6 + CH2(S) <=> C2H5 + CH3     40000000000000.0 0.0 -550.0
CH3 + O2 <=> CH3O + O            35600000000000.0 0.0 30479.995219885277
CH3 + O2 <=> CH2O + OH           2310000000000.0 0.0 20315.0
CH3 + H2O2 <=> CH4 + HO2         24500.0 2.47 5180.0
2 CH3 (+M) <=> C2H6 (+M)         6.77e+16 -1.18 654.0
LOW /3.4e+41 -7.03 2762.0004780114723/
TROE /0.619 73.2 1180 10000/
CH4/2.000E+00/ CO/1.500E+00/ CO2/2.000E+00/ H2/2.000E+00/ H2O/6.000E+00/
2 CH3 <=> C2H5 + H               6840000000000.0 0.1 10600.0
CH3 + HCO <=> CH4 + CO           26480000000000.0 0.0 0.0
CH2O + CH3 <=> CH4 + HCO         3320.0 2.81 5860.0
CH3 + CH3OH <=> CH2OH + CH4      30000000.0 1.5 9940.0
CH3 + CH3OH <=> CH3O + CH4       10000000.0 1.5 9940.0
C2H4 + CH3 <=> C2H3 + CH4        227000.0 2.0 9200.0
C2H6 + CH3 <=> C2H5 + CH4        6140000.0 1.74 10450.0
HCO + H2O <=> CO + H + H2O       1.5e+18 -1.0 17000.0
HCO + M <=> CO + H + M           1.87e+17 -1.0 17000.0
CH4/2.000E+00/ CO/1.500E+00/ CO2/2.000E+00/ H2/2.000E+00/ H2O/0.000E+00/
HCO + O2 <=> CO + HO2            13450000000000.0 0.0 400.0
CH2OH + O2 <=> CH2O + HO2        18000000000000.0 0.0 900.0
CH3O + O2 <=> CH2O + HO2         4.28e-13 7.6 -3530.0
C2H3 + O2 <=> CH2O + HCO         4.58e+16 -1.39 1015.0
C2H4 (+M) <=> C2H2 + H2 (+M)     8000000000000.0 0.44 86770.00478011472
LOW /1.5799999999999998e+51 -9.3 97800.0/
TROE /0.735 180 1040 5420/
CH4/2.000E+00/ CO/1.500E+00/ CO2/2.000E+00/ H2/2.000E+00/ H2O/6.000E+00/
C2H5 + O2 <=> C2H4 + HO2         840000000000.0 0.0 3875.0
HCCO + O2 <=> 2 CO + OH          3200000000000.0 0.0 854.0
CH3 + O => CO + H + H2           33700000000000.0 0.0 0.0
C2H4 + O <=> CH2CHO + H          6700000.0 1.83 220.0
HO2 + OH <=> H2O + O2            5000000000000000.0 0.0 17330.0
DUPLICATE
CH3 + OH => CH2O + H2            8000000000.0 0.5 -1755.0
CH2 + O2 => CO2 + 2 H            5800000000000.0 0.0 1500.0
CH2 + O2 <=> CH2O + O            2400000000000.0 0.0 1500.0
CH2(S) + H2O => CH2O + H2        68200000000.0 0.25 -935.0
C2H3 + O2 <=> CH2CHO + O         303000000000.0 0.29 11.0
C2H3 + O2 <=> C2H2 + HO2         1337000.0 1.61 -384.0
CH2CO + H (+M) <=> CH2CHO (+M)   486500000000.0 0.422 -1755.0
LOW /1.012e+42 -7.63 3854.0009560229446/
TROE /0.465 201 1770 5330/
CH4/2.000E+00/ CO/1.500E+00/ CO2/2.000E+00/ H2/2.000E+00/ H2O/6.000E+00/
CH2CHO + O => CH2 + CO2 + H      150000000000000.0 0.0 0.0
CH2CHO + O2 => CH2O + CO + OH    18100000000.0 0.0 0.0
CH2CHO + O2 => 2 HCO + OH        23500000000.0 0.0 0.0
CH2CHO + H <=> CH3 + HCO         22000000000000.0 0.0 0.0
CH2CHO + H <=> CH2CO + H2        11000000000000.0 0.0 0.0
END



TRANSPORT
H2                 1    38.000     2.920     0.000     0.790   280.000
H                  0   145.000     2.050     0.000     0.000     0.000
O                  0    80.000     2.750     0.000     0.000     0.000
O2                 1   107.400     3.458     0.000     1.600     3.800
OH                 1    80.000     2.750     0.000     0.000     0.000
H2O                2   572.400     2.605     1.844     0.000     4.000
HO2                2   107.400     3.458     0.000     0.000     1.000 ! *
H2O2               2   107.400     3.458     0.000     0.000     3.800
CH3                1   144.000     3.800     0.000     0.000     0.000
CH4                2   141.400     3.746     0.000     2.600    13.000
CO                 1    98.100     3.650     0.000     1.950     1.800
CO2                1   244.000     3.763     0.000     2.650     2.100
CH2O               2   498.000     3.590     0.000     0.000     2.000
CH3O               2   417.000     3.690     1.700     0.000     2.000
CH3OH              2   481.800     3.626     0.000     0.000     1.000 ! SVE
C2H2               1   209.000     4.100     0.000     0.000     2.500
C2H4               2   280.800     3.971     0.000     0.000     1.500
C2H6               2   252.300     4.302     0.000     0.000     1.500
CH2CO              2   436.000     3.970     0.000     0.000     2.000
N2                 1    97.530     3.621     0.000     1.760     4.000
CH                 1    80.000     2.750     0.000     0.000     0.000
CH2                1   144.000     3.800     0.000     0.000     0.000
CH2(S)             1   144.000     3.800     0.000     0.000     0.000
HCO                2   498.000     3.590     0.000     0.000     0.000
CH2OH              2   417.000     3.690     1.700     0.000     2.000
C2H3               2   209.000     4.100     0.000     0.000     1.000 ! *
C2H5               2   252.300     4.302     0.000     0.000     1.500
HCCO               2   150.000     2.500     0.000     0.000     1.000 ! *
CH2CHO             2   436.000     3.970     0.000     0.000     2.000
END